
#======================================================================
# CRYSTAL DATA
#----------------------------------------------------------------------
data_VESTA_phase_1

_chemical_name_common                  'XCrySDen XSF file'
_cell_length_a                         5.048742
_cell_length_b                         5.048742
_cell_length_c                         5.048742
_cell_angle_alpha                      60.000004
_cell_angle_beta                       60.000004
_cell_angle_gamma                      60.000004
_cell_volume                           90.998587
_space_group_name_H-M_alt              'P 1'
_space_group_IT_number                 1

loop_
_space_group_symop_operation_xyz
   'x, y, z'

loop_
   _atom_site_label
   _atom_site_occupancy
   _atom_site_fract_x
   _atom_site_fract_y
   _atom_site_fract_z
   _atom_site_adp_type
   _atom_site_B_iso_or_equiv
   _atom_site_type_symbol
   B1         1.0     0.000000     0.000000     0.000000    Biso  1.000000 B
   C1         1.0    -0.127433     0.382298    -0.127433    Biso  1.000000 C
   C2         1.0    -0.001036    -0.001036     0.501036    Biso  1.000000 C
   C3         1.0    -0.125335     0.375111     0.375111    Biso  1.000000 C
   C4         1.0    -0.001036     0.501036    -0.001036    Biso  1.000000 C
   C5         1.0    -0.127433     0.872567    -0.127433    Biso  1.000000 C
   C6         1.0    -0.001036     0.501036     0.501036    Biso  1.000000 C
   C7         1.0    -0.127433     0.872567     0.382298    Biso  1.000000 C
   C8         1.0     0.501036    -0.001036    -0.001036    Biso  1.000000 C
   C9         1.0     0.375111     0.375111    -0.125335    Biso  1.000000 C
   C10        1.0     0.501036    -0.001036     0.501036    Biso  1.000000 C
   C11        1.0     0.375111     0.375111     0.375111    Biso  1.000000 C
   C12        1.0     0.501036     0.501036    -0.001036    Biso  1.000000 C
   C13        1.0     0.382298     0.872567    -0.127433    Biso  1.000000 C
   C14        1.0     0.500000     0.500000     0.500000    Biso  1.000000 C
   C15        1.0     0.375111     0.874665     0.375111    Biso  1.000000 C
