
#======================================================================
# CRYSTAL DATA
#----------------------------------------------------------------------
data_VESTA_phase_1

_chemical_name_common                  'XCrySDen XSF file'
_cell_length_a                         5.147284
_cell_length_b                         5.109182
_cell_length_c                         5.147284
_cell_angle_alpha                      59.753002
_cell_angle_beta                       60.000000
_cell_angle_gamma                      59.753002
_cell_volume                           95.358858
_space_group_name_H-M_alt              'P 1'
_space_group_IT_number                 1

loop_
_space_group_symop_operation_xyz
   'x, y, z'

loop_
   _atom_site_label
   _atom_site_occupancy
   _atom_site_fract_x
   _atom_site_fract_y
   _atom_site_fract_z
   _atom_site_adp_type
   _atom_site_B_iso_or_equiv
   _atom_site_type_symbol
   B1         1.0     0.014491    -0.043474     0.014491    Biso  1.000000 B
   B2         1.0    -0.139517     0.418551    -0.139517    Biso  1.000000 B
   C1         1.0    -0.001502    -0.000386     0.500944    Biso  1.000000 C
   C2         1.0    -0.123495     0.375374     0.374060    Biso  1.000000 C
   C3         1.0     0.005744     0.495337     0.005744    Biso  1.000000 C
   C4         1.0    -0.130737     0.879653    -0.130737    Biso  1.000000 C
   C5         1.0     0.005744     0.495337     0.493175    Biso  1.000000 C
   C6         1.0    -0.130737     0.879653     0.381821    Biso  1.000000 C
   C7         1.0     0.500944    -0.000386    -0.001502    Biso  1.000000 C
   C8         1.0     0.374060     0.375374    -0.123495    Biso  1.000000 C
   C9         1.0     0.500944    -0.000386     0.500944    Biso  1.000000 C
   C10        1.0     0.374060     0.375374     0.374060    Biso  1.000000 C
   C11        1.0     0.493175     0.495337     0.005744    Biso  1.000000 C
   C12        1.0     0.381821     0.879653    -0.130737    Biso  1.000000 C
   C13        1.0     0.499606     0.501183     0.499606    Biso  1.000000 C
   C14        1.0     0.375397     0.873809     0.375397    Biso  1.000000 C
